Version 4
SHEET 1 1408 680
WIRE 512 -496 464 -496
WIRE 640 -496 576 -496
WIRE 464 -400 464 -496
WIRE 512 -400 464 -400
WIRE 640 -400 640 -496
WIRE 640 -400 592 -400
WIRE 544 -208 544 -272
WIRE -192 -144 -240 -144
WIRE -80 -144 -80 -256
WIRE -80 -144 -112 -144
WIRE -16 -144 -80 -144
WIRE 96 -144 64 -144
WIRE 224 -144 96 -144
WIRE 352 -144 304 -144
WIRE 544 -144 544 -208
WIRE 464 -128 464 -400
WIRE 512 -128 464 -128
WIRE 640 -112 640 -400
WIRE 640 -112 576 -112
WIRE 704 -112 640 -112
WIRE 800 -112 784 -112
WIRE 912 -112 800 -112
WIRE 352 -96 352 -144
WIRE 512 -96 352 -96
WIRE 800 -64 800 -112
WIRE 224 -48 192 -48
WIRE 464 -48 464 -128
WIRE 464 -48 304 -48
WIRE 352 -32 352 -96
WIRE -240 16 -240 -144
WIRE -192 16 -240 16
WIRE -80 16 -112 16
WIRE -16 16 -80 16
WIRE 96 16 96 -144
WIRE 96 16 64 16
WIRE -464 64 -464 0
WIRE -464 112 -464 64
WIRE -240 128 -240 16
WIRE 192 128 192 -48
WIRE 192 128 -240 128
WIRE -80 192 -80 16
WIRE 352 192 352 48
WIRE 800 192 800 0
FLAG -80 -256 Vcc
IOPIN -80 -256 BiDir
FLAG -80 192 0
FLAG 352 192 0
FLAG 544 -80 0
FLAG 544 -272 Vcc
IOPIN 544 -272 BiDir
FLAG 608 -208 0
FLAG -464 192 0
FLAG -400 64 0
FLAG -464 0 Vcc
IOPIN -464 0 BiDir
FLAG 912 -112 Vamp
IOPIN 912 -112 Out
FLAG 800 192 0
SYMBOL res -96 -160 R90
WINDOW 0 0 56 VBottom 2
WINDOW 3 32 56 VTop 2
SYMATTR InstName R1
SYMATTR Value 5K
SYMBOL res 80 -160 R90
WINDOW 0 0 56 VBottom 2
WINDOW 3 32 56 VTop 2
SYMATTR InstName R2
SYMATTR Value 5K
SYMBOL res -96 0 R90
WINDOW 0 0 56 VBottom 2
WINDOW 3 32 56 VTop 2
SYMATTR InstName R4
SYMATTR Value 5K
SYMBOL res 80 0 R90
WINDOW 0 0 56 VBottom 2
WINDOW 3 32 56 VTop 2
SYMATTR InstName R3
SYMATTR Value {Rvar3}
SYMBOL res 320 -160 R90
WINDOW 0 0 56 VBottom 2
WINDOW 3 32 56 VTop 2
SYMATTR InstName R5
SYMATTR Value 1K
SYMBOL res 320 -64 R90
WINDOW 0 0 56 VBottom 2
WINDOW 3 32 56 VTop 2
SYMATTR InstName R6
SYMATTR Value 100K
SYMBOL res 336 -48 R0
SYMATTR InstName R7
SYMATTR Value 1Meg
SYMBOL res 608 -416 R90
WINDOW 0 0 56 VBottom 2
WINDOW 3 32 56 VTop 2
SYMATTR InstName RF/hpf3
SYMATTR Value 1Meg
SYMBOL cap 576 -512 R90
WINDOW 0 0 32 VBottom 2
WINDOW 3 32 32 VTop 2
SYMATTR InstName Chpf3
SYMATTR Value 1µ
SYMBOL cap 544 -192 R270
WINDOW 0 32 32 VTop 2
WINDOW 3 0 32 VBottom 2
SYMATTR InstName Chd3
SYMATTR Value 10n
SYMBOL TLV9054 544 -112 R0
SYMATTR InstName U3
SYMBOL voltage -464 96 R0
WINDOW 123 0 0 Left 0
WINDOW 39 0 0 Left 0
SYMATTR InstName Vcc1
SYMATTR Value 3.3
SYMBOL cap -400 48 R90
WINDOW 0 0 32 VBottom 2
WINDOW 3 32 32 VTop 2
SYMATTR InstName Cld1
SYMATTR Value 10µ
SYMBOL res 800 -128 R90
WINDOW 0 0 56 VBottom 2
WINDOW 3 32 56 VTop 2
SYMATTR InstName Rlpf3
SYMATTR Value 1K
SYMBOL cap 784 -64 R0
SYMATTR InstName Clpf3
SYMATTR Value 100n
TEXT -320 240 Left 1 ;Pressure Sensor\n[R3: 4K~6K]
TEXT 176 240 Left 1 ;Difference Amplifier\n[Gain: 1000]
TEXT 896 -64 Left 1 ;To ADC Input \n[A0]
TEXT 120 144 Left 1 ;-Out
TEXT -240 144 Left 1 ;-Out
TEXT 120 -160 Left 1 ;+Out
TEXT -528 240 Left 1 ;Voltage Source [3.3V]\nwith decoupler
TEXT -88 -8 Left 1 ;-In
TEXT -88 -120 Left 1 ;+In
TEXT 432 -600 Left 1 ;High-Pass Filter\nwith decoupler\n[f>~0.16Hz]
TEXT -528 328 Left 2 !.op
TEXT -528 360 Left 2 !.step param Rvar3 4K 6K 50
TEXT 688 240 Left 1 ;Low-Pass Filter\n[f<~1.6kHz]
RECTANGLE Normal 112 224 -320 -352 2
RECTANGLE Normal 1008 -80 896 -144 2
RECTANGLE Normal -352 224 -528 -80 2
RECTANGLE Normal 672 -448 176 224 2
RECTANGLE Normal 432 -544 672 -352 2
RECTANGLE Normal 880 -192 688 224 2
