Version 4
SHEET 1 1228 680
WIRE 208 -400 80 -400
WIRE 400 -400 272 -400
WIRE 80 -256 80 -400
WIRE 208 -256 80 -256
WIRE 400 -256 400 -400
WIRE 400 -256 288 -256
WIRE 736 -256 400 -256
WIRE 864 -256 816 -256
WIRE 976 -256 864 -256
WIRE 864 -208 864 -256
WIRE 240 -64 240 -112
WIRE 240 0 240 -64
WIRE -112 16 -176 16
WIRE -48 16 -112 16
WIRE 80 16 80 -256
WIRE 80 16 32 16
WIRE 208 16 80 16
WIRE 400 32 400 -256
WIRE 400 32 272 32
WIRE -112 48 -112 16
WIRE 208 48 128 48
WIRE -464 112 -464 48
WIRE 128 128 128 48
WIRE 560 128 560 96
WIRE 560 128 128 128
WIRE -464 160 -464 112
WIRE 560 160 560 128
WIRE -112 240 -112 128
WIRE 864 240 864 -144
FLAG -464 240 0
FLAG -400 112 0
FLAG -464 48 Vcc
IOPIN -464 48 BiDir
FLAG 240 -112 Vcc
IOPIN 240 -112 BiDir
FLAG 304 -64 0
FLAG 240 64 0
FLAG 976 -256 Vamp1
IOPIN 976 -256 Out
FLAG -112 240 0
FLAG -256 16 Vcc
IOPIN -256 16 BiDir
FLAG 864 240 0
FLAG 560 240 0
FLAG 560 16 Vcc
IOPIN 560 16 BiDir
SYMBOL TLV9054 240 32 R0
SYMATTR InstName U1
SYMBOL voltage -464 144 R0
WINDOW 123 0 0 Left 0
WINDOW 39 0 0 Left 0
SYMATTR InstName Vcc
SYMATTR Value 3.3
SYMBOL res 304 -272 R90
WINDOW 0 0 56 VBottom 2
WINDOW 3 32 56 VTop 2
SYMATTR InstName RF/hpf1
SYMATTR Value {Ramp}
SYMBOL cap -400 96 R90
WINDOW 0 0 32 VBottom 2
WINDOW 3 32 32 VTop 2
SYMATTR InstName Cld
SYMATTR Value 10µF
SYMBOL cap 304 -80 R90
WINDOW 0 0 32 VBottom 2
WINDOW 3 32 32 VTop 2
SYMATTR InstName Chd1
SYMATTR Value 10n
SYMBOL res 48 0 R90
WINDOW 0 0 56 VBottom 2
WINDOW 3 32 56 VTop 2
SYMATTR InstName RG
SYMATTR Value 1K
SYMBOL res -160 0 R90
WINDOW 0 0 56 VBottom 2
WINDOW 3 32 56 VTop 2
SYMATTR InstName R1
SYMATTR Value 10K
SYMBOL res -96 144 R180
WINDOW 0 36 76 Left 2
WINDOW 3 36 40 Left 2
SYMATTR InstName R2
SYMATTR Value 1K1
SYMBOL cap 848 -208 R0
SYMATTR InstName Clpf1
SYMATTR Value 10nF
SYMBOL res 832 -272 R90
WINDOW 0 0 56 VBottom 2
WINDOW 3 32 56 VTop 2
SYMATTR InstName Rlpf1
SYMATTR Value 10K
SYMBOL cap 272 -416 R90
WINDOW 0 0 32 VBottom 2
WINDOW 3 32 32 VTop 2
SYMATTR InstName Chpf
SYMATTR Value 10µF
SYMBOL res 544 0 R0
SYMATTR InstName R3
SYMATTR Value 10K
SYMBOL res 544 144 R0
SYMATTR InstName Rrubber
SYMATTR Value {Rvar}
TEXT -528 288 Left 1 ;Voltage Source [3.3V]\nwith decoupler
TEXT -528 432 Left 2 !.op
TEXT -328 288 Left 1 ;Non-Inverting Amplifier\n[Gain: 2~101]\n[Target Gain: 31 (Ramp: 30K)]
TEXT 472 288 Left 1 ;Conductive Rubber Sensor\n[Rrubber: 1K1~1K8]
TEXT 712 288 Left 1 ;Low-Pass Filter\n[f<~1.6kHz]
TEXT 32 -520 Left 1 ;High-Pass Filter\nwith decoupler\n[f>~0.53Hz]
TEXT 152 288 Left 1 ;RF/hpf1: Variable Resistor [0~100kOhm]
TEXT -528 464 Left 2 !.step param Rvar 1K1 1K8 10
TEXT -528 496 Left 2 !.step param Ramp 1K 100K 10K
RECTANGLE Normal -352 272 -528 -32 2
RECTANGLE Normal 688 -80 464 272 2
RECTANGLE Normal 448 -320 -336 272 2
RECTANGLE Normal 32 -464 448 -192 2
RECTANGLE Normal 960 -320 704 272 2
