Version 4
SHEET 1 880 680
WIRE -288 -336 -352 -336
WIRE -160 -336 -224 -336
WIRE -352 -224 -352 -336
WIRE -304 -224 -352 -224
WIRE -160 -224 -160 -336
WIRE -160 -224 -224 -224
WIRE 144 -224 -160 -224
WIRE 272 -224 224 -224
WIRE 400 -224 272 -224
WIRE 272 -176 272 -224
WIRE -272 0 -272 -48
WIRE -272 64 -272 0
WIRE -608 80 -656 80
WIRE -512 80 -608 80
WIRE -352 80 -352 -224
WIRE -352 80 -432 80
WIRE -304 80 -352 80
WIRE -160 96 -160 -224
WIRE -160 96 -240 96
WIRE -304 112 -352 112
WIRE -608 128 -608 80
WIRE -944 144 -944 80
WIRE -352 160 -352 112
WIRE -32 160 -32 128
WIRE -32 160 -352 160
WIRE -944 192 -944 144
WIRE -32 192 -32 160
WIRE -608 272 -608 208
WIRE 272 272 272 -112
FLAG -272 -48 Vcc
IOPIN -272 -48 BiDir
FLAG -208 0 0
FLAG -272 128 0
FLAG -32 272 0
FLAG -32 48 Vcc
IOPIN -32 48 BiDir
FLAG -736 80 Vcc
IOPIN -736 80 BiDir
FLAG -608 272 0
FLAG 400 -224 Vamp2
IOPIN 400 -224 Out
FLAG -944 272 0
FLAG -880 144 0
FLAG -944 80 Vcc
IOPIN -944 80 BiDir
FLAG 272 272 0
SYMBOL TLV9054 -272 96 R0
SYMATTR InstName U2
SYMBOL cap -208 -16 R90
WINDOW 0 0 32 VBottom 2
WINDOW 3 32 32 VTop 2
SYMATTR InstName Chd2
SYMATTR Value 10n
SYMBOL res -48 32 R0
SYMATTR InstName R6
SYMATTR Value 10K
SYMBOL res -48 176 R0
SYMATTR InstName Rtemp
SYMATTR Value {Rvar2}
SYMBOL res -208 -240 R90
WINDOW 0 0 56 VBottom 2
WINDOW 3 32 56 VTop 2
SYMATTR InstName RF/hpf2
SYMATTR Value {Ramp}
SYMBOL cap -224 -352 R90
WINDOW 0 0 32 VBottom 2
WINDOW 3 32 32 VTop 2
SYMATTR InstName Chpf2
SYMATTR Value 22µF
SYMBOL res -416 64 R90
WINDOW 0 0 56 VBottom 2
WINDOW 3 32 56 VTop 2
SYMATTR InstName RG2
SYMATTR Value 1K
SYMBOL res -624 112 R0
SYMATTR InstName R5
SYMATTR Value 1K1
SYMBOL res -640 64 R90
WINDOW 0 0 56 VBottom 2
WINDOW 3 32 56 VTop 2
SYMATTR InstName R4
SYMATTR Value 10K
SYMBOL voltage -944 176 R0
WINDOW 123 0 0 Left 0
WINDOW 39 0 0 Left 0
SYMATTR InstName Vcc1
SYMATTR Value 3.3
SYMBOL cap -880 128 R90
WINDOW 0 0 32 VBottom 2
WINDOW 3 32 32 VTop 2
SYMATTR InstName Cld1
SYMATTR Value 10µ
SYMBOL cap 256 -176 R0
SYMATTR InstName Clpf2
SYMATTR Value 10n
SYMBOL res 240 -240 R90
WINDOW 0 0 56 VBottom 2
WINDOW 3 32 56 VTop 2
SYMATTR InstName Rlpf2
SYMATTR Value 10K
TEXT -1008 464 Left 2 !.step param Rvar2 10K 12K 10
TEXT -1008 320 Left 1 ;Voltage Source [3.3V]\nwith decoupler
TEXT 120 320 Left 1 ;Low-Pass Filter\n[f<~1.6kHz]
TEXT -400 -440 Left 1 ;High-Pass Filter\nwith decoupler\n[f>~0.24Hz]
TEXT -96 320 Left 1 ;Thermistor\n[Rtemp: 10K~12K]
TEXT -1008 432 Left 2 !.op
TEXT -1008 496 Left 2 !.step param Ramp 1K 100K 10K
TEXT -816 320 Left 1 ;Non-Inverting Amplifier\n[Gain: 2~101]\n[Target Gain: 31 (Ramp: 30K)]
TEXT -424 320 Left 1 ;RF/hpf2: Variable Resistor [0~100kOhm]
RECTANGLE Normal -832 304 -1008 0 2
RECTANGLE Normal 368 -288 112 304 2
RECTANGLE Normal -112 -272 -816 304 2
RECTANGLE Normal 96 -64 -96 304 2
RECTANGLE Normal -400 -384 -112 -160 2
